CLAVDIVS 402 ι CLAVDIVS

 

Aureliani et electionem Taciti, interregnum sex mensium sive septem,
quod refertur vita 1, 1; 2, 1. 6 Epitome 35, 9, prorsus ficticium est.
Frater: P. Annius Florianus. Liberos permultos reliquit vita 16‚· 4.

823 APPivs CLAVDIVS TARRONIVS DEXTER, vir clarissimus deo Mithrae
dedicavit t. X 1479 Neapoli qui hodie eoetat. Fortasse saeculi IIII
cf. Boryhesi opp. VIII p. 199, Seeck praef. Symmach. p. LI.

824 CL(AVDIVS) TEBENS, pater Claudii Illyrii iu t. filii Δελτίον ἀρχαιο-
λογικόν V (1889) p. 133 n. 14. Viole supra sub filio.

825 TI. CL(AVDIVS) TELEMACHVS. Tituli Isycii yraece scripti: ipsi positus
est Sidymcnsis Bermclorf, Reisen in Isykien p. 67 u. 42 (1), memoratur
in t. Sidymae repertis ibd. p. 67 ri. 41 (2) uxoris, p. 71 rt. 50 (3), p. 73
n. 52 (4), m t. Xanthw ala 4274 Aaou. p. 1124 = Lebas-Wad-
cliuytorc 1257 (5).

Tria uomina eoehibent t. omnes, in t. 3, ubi nomina imperatoris
erasa suut, nomina Telemachi post rasuram restituta sunt. —- Civis
Xanthi et Sidymae t. 1. 3, princeps gerusiae Sidymae t. 4, Lyciarcha
t. 3. 5. —— Quaestor Achaiae, legatus Asiae et (in ea legatione) oecista
Laodiceae et Hierapolis, curator civitatis Callatianorum Moesiae (iri-
ferioris), consularis (cos. suffectus aimo incerto sub finem saeculi II ut
violetur) t. 1.

Maritus Tiberiae Claudiae Arsasis t. 2, pater Ti. Claudii Stasi-
themidis et Claudiae Arsinoes t. 1. 2, avus Ti. Claudii Aurelii Tele-
machi t. 2. — Pater Telemachi videtur Stasithemis Si[dymaeus] hono-
ratus t. Xanthio mutilo Monatsberichte cler Berliner Akaol. 1865 p. 612.

Potest idem esse Claudius Telemachus quem memorat Paulus Diqest.
4, 4, 38 pr

826 TI. CLAVDIVS ..... LA THEOPROPVS, ὁ κράτιστος ὑπατικός = consularis
(cos. suffectus armo incerto saeculi II vel III) honoratus t. Chalcetico In-
scriptiones yraecae insularum I 959. —- Pater huius videtur Theopropus
Olympionica, quem celebrat epiyramma Olympiae repertum Kaibel,
Ispiyrammata yracca 934 εὐπατρίδην Ῥόδιον συνκλητικῶν γενετῆρα.

- Ti. Claudius Thrasyllus viole Thrasyllus.

827 Claudius Timarchus, Cretensis 1n senatu reus anno 62 Tac. a. 15, 20.

828 G. CL(AVD1VS) TITIANVS memoratur irc t. Eleusino Bulletiu cle cor-
respoudauce Helleuique VI (1882) p. 436 mulieris cuiusdam, cuius nomen
periit, quae (licitur ἀδελφιδῆ C. Claudii Titiani, filia Ph[ilip]pae (filiae)
Cl. Demostrati.

Vir clarissimus (συνκλητικός), tribunus (militum), Xvir (stlitibus
iudicandis), quaestor provinciae Achaiae, tribunus plebis, praetor,
proconsul Cretae tit. -— Oum Claudius Demostratus idem videatur
atque Demostratus adversarius Attici Herodis, t. ad finem saeculi II
referendus est.

829 Claudius Tryphoninus‚ iure consultus in consilio principis (Antonini
Severi f.) fuit Paulus Diyest. 49, 14, 50; rescriptum Antonini ad eum

