CLAVDIVS 360 CLAVDIVS

 

magistros qui publice Athenis iuvenes docerent, ut Herodes selegeret‚
ei imperator M. Antoninus mandare solebat Philostr. 2, 2, 2.

Iudicium Philostrati de eloquentia eius vita 34-35 cf. W. Schmidt,
Der Attieisrnus I ρ. 192 sqq. Extat oratio quae inscribitur Ἡρώδου
περὶ πολιτείας; argumentum orationis contra Stoicos habitae refertur
a Gellio 19, 12. Ἐπιστολαὶ δὲ πλεῖσται Ἡρώδου καὶ διαλέξεις καὶ ἐφη·
μερίδες, ἐγχρειρίδια τε καὶ καίρια τὴν ἀρχαίαν πολυμαθίαν ἐν βραχεῖ ἀπην-
θισμένα rita 36 (inde Suidas s. v. Ἡρώδηςη iudicium de epistulis Herodis
Philostr. epist. p. 258 eol. Kayser.

656 TI. CL(AvD1vs) ATTICVS HERODIANVS, Τῑ. Ol(audii) Attici et Vi-
bulliae Alciae filius honoratus t. in Oea insula reperto CI G 2371,
quern posuit ἡ πόλις Ἰουλιητῶὺ. Frater iqitur Attici Herodis sophistae
natu minor, ut ex nominibus apparet.

657 Claudius Augustalis, adulescens, amicus Columellae Col. 11, 1, 1.

658 Tib. Claudius Augustanus, Tib. f., tribu Quint, procurator Augusti
provinciae Britanniae, pater (naturalis) Bellici Sollertis (z Ti. Claudi
Alpini v. supra B 85), socer Claudiae Mareellinam, quae ei posuit
t. Veronensem V3337.

659 L. TI. CLAVDIVS AVRELIVS QVINTIANVS, consul a. 235 cum Cn.
Claudio Severo. Titulus Campanus ei a Ti. Cl(audio) Felice IIviro
amico positus X 3850. —- Plena nomina exhibet tit.; in consulatu:
Ti. Claudius Quintianus VI 2001. 2009, ceterum Quintianus fasti.

Tribu Quirina. Triumvir monetalis aere argento auro flando
feriundo, quaestor candidatus, praetor, consul tit„ a. 235 fasti ; ponti-
fex tit.

660 TIB. CL(AVDIVS) AVR(ELIVS) TELEMACHVS‚ vir clarissimus, nep0s
Ti. Claudii Telemachi memoratur in t. avi Benndorf, Reisen in Dyeien
p. 67 n. 62. Vide infra sub avo.

661 Ti. Claudius B[a]l . . . ., procurator Aug. (Claudii vel Neronis) hono-
ratus t. Deliaco yraece scrzjoto Bulletin de correspondance Hellenique
ΙΙΙ (1879) p. 160 n. 9, quem posuit Ti. Claudius Novius (of. CIA III
457. 652. 1085); in lapide superest BAA, Βαλ[εριανόν] supplevit sine
causa Homolle qui edidit,· immo eoe spatio litterarum supplendum videtur
Βάλ[βον] potius quam Βαλ[βῖνον] vel Βαλ[βι’λλον].

662 Ti. Claudius Balbillus memoratur in t. Aeqyptiis· OIG 4699 (1).
4957 v. 28 (2), in t. libertae Portuensi I GI 1323 = CI G 6668 (3).

Plena nomina exhibet t. 1, Balbillus t. 2, Claudia Balbilli l. t. 3,-
apud seripz‘ores C. (sic traditur) Balbillus Tae. a. 13, 22, alibi Bal-
billus. — Praefectus Aegypti anno 55 nuncupatus Tac. l. l., Seneca
natur. quaest. 4, 2, 13, Plinius n. h. 19, 3, tit. 1. 2. — Virorum
optimus profectusque in omni litterarum genere rarissimi citatur
Sen. l. l.

663 [CLA]VD1vs BAssvs [CAP1]TOL1NVS‚ consul (suffectus anno inemo)
VI 3829 of. Ephem. ep. 4, 820 t. urbanus mutilus seripms ‘litteris

